Version 4
SHEET 1 1280 680
WIRE 496 160 480 160
WIRE 304 176 304 144
WIRE 352 176 304 176
WIRE 352 208 96 208
WIRE 352 240 336 240
WIRE 848 240 848 192
WIRE 944 240 944 192
WIRE 1120 240 1120 192
WIRE 1216 240 1216 192
WIRE 352 272 336 272
WIRE 688 288 480 288
WIRE 352 304 336 304
WIRE 592 320 480 320
WIRE 96 352 96 208
WIRE 688 352 688 288
WIRE 848 352 848 320
WIRE 896 352 848 352
WIRE 944 352 944 320
WIRE 944 352 896 352
WIRE 1120 352 1120 320
WIRE 1168 352 1120 352
WIRE 1216 352 1216 320
WIRE 1216 352 1168 352
WIRE 896 368 896 352
WIRE 1168 368 1168 352
WIRE 96 496 96 432
WIRE 592 496 592 320
WIRE 688 496 688 432
WIRE 896 496 896 448
WIRE 1168 496 1168 448
FLAG 592 496 0
FLAG 688 496 0
FLAG 96 496 0
FLAG 896 496 0
FLAG 1168 496 0
FLAG 336 240 Q1
FLAG 336 272 Q2
FLAG 336 304 Q3
FLAG 496 160 Q4
FLAG 848 192 Q1
FLAG 944 192 Q2
FLAG 1120 192 Q3
FLAG 1216 192 Q4
FLAG 896 352 A
FLAG 1168 352 B
FLAG 304 144 0
FLAG 96 208 CLK
SYMBOL voltage 688 336 R0
SYMATTR InstName Vdd
SYMATTR Value 5
SYMBOL voltage 96 336 R0
SYMATTR InstName DIGICLOCK
SYMATTR Value PULSE(0 5 0 0 0 500u 1m)
SYMBOL res 832 224 R0
SYMATTR InstName R1
SYMATTR Value 10k
SYMBOL res 928 224 R0
SYMATTR InstName R2
SYMATTR Value 20k
SYMBOL res 1104 224 R0
SYMATTR InstName R3
SYMATTR Value 10k
SYMBOL res 1200 224 R0
SYMATTR InstName R4
SYMATTR Value 20k
SYMBOL res 880 352 R0
SYMATTR InstName R5
SYMATTR Value 20k
SYMBOL res 1152 352 R0
SYMATTR InstName R6
SYMATTR Value 20k
SYMBOL AutoGenerated/CD4024B 416 240 R0
SYMATTR InstName U1
SYMATTR SpiceLine vdd=5 speed=0.1u tripdt=0.1u
TEXT 184 536 Left 2 !.include /Users/mazz/University-Projects/ELAB-B/Lab3/CD4000.lib
TEXT 184 568 Left 2 !.tran 20m
